

!  +++++++++++++++++++++++++++++++++++++++++++++++++++++++++++++++++++++++++++++++
!  +++++++++++++++++++++++++++++++++++++++++++++++++++++++++++++++++++++++++++++++
!
!    ANAR+ EnergyPlus output
!
!    created from ANAR+ for thermal analysis
!
!    http://ANAR.ch
!    Guillaume LaBelle & Julien Nembrini
!


!  +++++++++++++++++++++++++++++++++++++++++++++++++++++++++++++++++++++++++++++++
!  +++++++++++++++++++++++++++++++++++++++++++++++++++++++++++++++++++++++++++++++



!  +++++++++++++++++++++++++++++++++++++++++++++++++++++++++++++++++++++++++++++++
!  +++++++++++++++++++++++++++++++++++++++++++++++++++++++++++++++++++++++++++++++


!  +++++++++++++++++++++++++++++++++++++++++++++++++++++++++++++++++++++++++++++++
!  +++++++++++++++++++++++++++++++++++++++++++++++++++++++++++++++++++++++++++++++


!  +++++++++++++++++++++++++++++++++++++++++++++++++++++++++++++++++++++++++++++++
!  +++++++++++++++++++++++++++++++++++++++++++++++++++++++++++++++++++++++++++++++
!!! !!!!!!!!!!!!!!!!!!!!!!!!!!!!!!!!!!!!!!!!!!!!!!!!!!!!!!!!!!!!!!!!!!!!!!!!!!!!!!!!!!!!!!!   
!!! !!!!!!!!!!!!!!!!!!!!!!!!!!!!!!!!!!!!!!!!!!!!!!!!!!!!!!!!!!!!!!!!!!!!!!!!!!!!!!!!!!!!!!!   
!!! !!!!!!!!!!!!!!!!!!!!!!!!!!!!!!!!!!!!!!!!!!!!!!!!!!!!!!!!!!!!!!!!!!!!!!!!!!!!!!!!!!!!!!!   
!!!
!!! energyPlus.idf
!!!
!!!
!!! Basic file description:   	basic scene file for automatic idf file creation using ANAR+ scripting engine
!!!								http://ANAR.ch                          
!!!
!!! Highlights:               	uses macros to include all basic materials and constructions from E+ DataSets
!!!								provides additional materials for basic computations.
!!!						    
!!!								IMPORTANT
!!!								/usr/local/EnergyPlus should sym link to the E+ install folder
!!!
!!!
!!!
!!! !!!!!!!!!!!!!!!!!!!!!!!!!!!!!!!!!!!!!!!!!!!!!!!!!!!!!!!!!!!!!!!!!!!!!!!!!!!!!!!!!!!!!!!   
!!! !!!!!!!!!!!!!!!!!!!!!!!!!!!!!!!!!!!!!!!!!!!!!!!!!!!!!!!!!!!!!!!!!!!!!!!!!!!!!!!!!!!!!!!   
!!! !!!!!!!!!!!!!!!!!!!!!!!!!!!!!!!!!!!!!!!!!!!!!!!!!!!!!!!!!!!!!!!!!!!!!!!!!!!!!!!!!!!!!!!   

  Version,8.0.0;						 

  ##def1 HVAC 1



!! !!!!!!!!!!!!!!!!!!!!!!!!!!!!!   
!! !!!!!!!!!!!!!!!!!!!!!!!!!!!!!   
!! !!!!!!!!!!!!!!!!!!!!!!!!!!!!!   


!  ##fileprefix C:\ANAR\EnergyPlus\DataSets\					

! materials and construction according to ASHRAE
  ##include include/ASHRAE_2005_HOF_Materials.idf 

! windows constructions
  ##include include/WindowConstructs.idf 
  ##include include/WindowGasMaterials.idf 
  ##include include/WindowGlassMaterials.idf 

! standard schedules
  ##include include/Schedules.idf 
  



!! !!!!!!!!!!!!!!!!!!!!!!!!!!!!!   
!! !!!!!!!!!!!!!!!!!!!!!!!!!!!!!   
!! !!!!!!!!!!!!!!!!!!!!!!!!!!!!!   

  
  Timestep,6;						
  
  Building,
    ANAR.ch,                 				!- Name
    0.0000000E+00,           				!- North Axis {deg}
    Suburbs,                 				!- Terrain
    0.01,			           				!- Loads Convergence Tolerance Value
    0.1,		               				!- Temperature Convergence Tolerance Value {deltaC}
    FullExteriorWithReflections, 			!- Solar Distribution
    25,       				!- Maximum Number of Warmup Days
    6;					!- Minimum Number of Warmup Days
  
  SurfaceConvectionAlgorithm:Inside,Simple;

  SurfaceConvectionAlgorithm:Outside,SimpleCombined;

  HeatBalanceAlgorithm,ConductionTransferFunction;
  
  ShadowCalculation,AverageOverDaysInFrequency,20,,SutherlandHodgman,SimpleSkyDiffuseModeling;

  SimulationControl,
    No,                      	!- Do Zone Sizing Calculation
    No,                      	!- Do System Sizing Calculation
    No,                      	!- Do Plant Sizing Calculation
    No,                     	!- Run Simulation for Sizing Periods
    Yes;                      	!- Run Simulation for Weather File Run Periods
    
    
  GlobalGeometryRules,
    UpperRightCorner,        !- Starting Vertex Position
    CounterclockWise,        !- Vertex Entry Direction
    World,                   !- Coordinate System
    World,                   !- Daylighting Reference Point Coordinate System
    World;                   !- Rectangular Surface Coordinate System
  

   RunPeriod,
    ,                        !- Name
    1,                    
    1,                    
    12,                    
    31,                    
    UseWeatherFile,          !- Day of Week for Start Day
    Yes,                     !- Use Weather File Holidays and Special Days
    Yes,                     !- Use Weather File Daylight Saving Period
    No,                      !- Apply Weekend Holiday Rule
    Yes,                     !- Use Weather File Rain Indicators
    Yes;                     !- Use Weather File Snow Indicators
  
! should check objects related to site such as this     
    Site:GroundTemperature:BuildingSurface,18.0,18.0,18.0,18.0,18.0,18.0,18.0,18.0,18.0,18.0,18.0,18.0;

##ifdef WARNINGS 

	Output:Diagnostics,DisplayExtraWarnings,DisplayAdvancedReportVariables;
	Output:Diagnostics,DisplayUnusedSchedules;
  	Output:Constructions,Constructions,Materials;

##endif

!! !!!!!!!!!!!!!!!!!!!!!!!!    
!! SCHEDULE TYPE LIMITS
!! !!!!!!!!!!!!!!!!!!!!!!!!    
  
  
  ScheduleTypeLimits,
    Any Number;              !- Name


  ScheduleTypeLimits,
    Temperature,             !- Name
    -60,                     !- Lower Limit Value
    200,                     !- Upper Limit Value
    CONTINUOUS,              !- Numeric Type
    Temperature;             !- Unit Type

  
!! !!!!!!!!!!!!!!!!!!!!!!!!    
!! PREDEFINED SCHEDULES 
!! !!!!!!!!!!!!!!!!!!!!!!!!    
 
 
Schedule:Compact,
    Seasonal Tree Shading,   !- Name
    Fraction,                !- Schedule Type Limits Name
    Through: 3/31,
    For: AllDays,  
    Until: 24:00, 0.9,
    Through: 4/30,   
    For: AllDays,     
    Until: 24:00, 0.6, 
    Through: 10/31,   
    For: AllDays,     
    Until: 24:00, 0.2, 
    Through: 11/30,   
    For: AllDays,     
    Until: 24:00, 0.6, 
    Through: 12/31,   
    For: AllDays,     
    Until: 24:00, 0.9; 
 

!! !!!!! !!!!!!!!!! !!!!!!!!!    
!! USER DEFINED SCHEDULES
!! !!!!! !!!!!!!!!! !!!!!!!!!    
 
!EnergyPlusUserDefinedSchedules
    

!! !!!!! !!!!!!!!!! !!!!!!!!!    
!! ANAR+ DEFINED MATERIALS
!! !!!!! !!!!!!!!!! !!!!!!!!! 

! STYRODUR:

Material,
    expanded polystyrene - extruded - 40mm,  !- Name
    MediumSmooth,            !- Roughness
    0.04,                    !- Thickness {m}
    0.029,                   !- Conductivity {W/m-K}
    29,                      !- Density {kg/m3}
    1210;                    !- Specific Heat {J/kg-K}

Material,
    expanded polystyrene - extruded - 80mm,  !- Name
    MediumSmooth,            !- Roughness
    0.08,                    !- Thickness {m}
    0.029,                   !- Conductivity {W/m-K}
    29,                      !- Density {kg/m3}
    1210;                    !- Specific Heat {J/kg-K}

Material,
    expanded polystyrene - extruded - 120mm,  !- Name
    MediumSmooth,            !- Roughness
    0.12,                    !- Thickness {m}
    0.029,                   !- Conductivity {W/m-K}
    29,                      !- Density {kg/m3}
    1210;                    !- Specific Heat {J/kg-K}

Material,
    expanded polystyrene - extruded - 160mm,  !- Name
    MediumSmooth,            !- Roughness
    0.16,                    !- Thickness {m}
    0.029,                   !- Conductivity {W/m-K}
    29,                      !- Density {kg/m3}
    1210;                    !- Specific Heat {J/kg-K}

Material,
    expanded polystyrene - extruded - 200mm,  !- Name
    MediumSmooth,            !- Roughness
    0.20,                    !- Thickness {m}
    0.029,                   !- Conductivity {W/m-K}
    29,                      !- Density {kg/m3}
    1210;                    !- Specific Heat {J/kg-K}

Material,
    expanded polystyrene - extruded - 240mm,  !- Name
    MediumSmooth,            !- Roughness
    0.24,                    !- Thickness {m}
    0.029,                   !- Conductivity {W/m-K}
    29,                      !- Density {kg/m3}
    1210;                    !- Specific Heat {J/kg-K}

Material,
    expanded polystyrene - extruded - 280mm,  !- Name
    MediumSmooth,            !- Roughness
    0.28,                    !- Thickness {m}
    0.029,                   !- Conductivity {W/m-K}
    29,                      !- Density {kg/m3}
    1210;                    !- Specific Heat {J/kg-K}
    
    
! STYROPOR:

Material,
    expanded polystyrene - molded beads - 40mm,  !- Name
    VeryRough,               !- Roughness
    0.04,                    !- Thickness {m}
    0.037,                   !- Conductivity {W/m-K}
    16,                      !- Density {kg/m3}
    1210;                    !- Specific Heat {J/kg-K}

Material,
    expanded polystyrene - molded beads - 80mm,  !- Name
    VeryRough,               !- Roughness
    0.08,                    !- Thickness {m}
    0.037,                   !- Conductivity {W/m-K}
    16,                      !- Density {kg/m3}
    1210;                    !- Specific Heat {J/kg-K}

Material,
    expanded polystyrene - molded beads - 120mm,  !- Name
    VeryRough,               !- Roughness
    0.12,                    !- Thickness {m}
    0.037,                   !- Conductivity {W/m-K}
    16,                      !- Density {kg/m3}
    1210;                    !- Specific Heat {J/kg-K}

Material,
    expanded polystyrene - molded beads - 160mm,  !- Name
    VeryRough,               !- Roughness
    0.16,                    !- Thickness {m}
    0.037,                   !- Conductivity {W/m-K}
    16,                      !- Density {kg/m3}
    1210;                    !- Specific Heat {J/kg-K}

Material,
    expanded polystyrene - molded beads - 200mm,  !- Name
    VeryRough,               !- Roughness
    0.20,                    !- Thickness {m}
    0.037,                   !- Conductivity {W/m-K}
    16,                      !- Density {kg/m3}
    1210;                    !- Specific Heat {J/kg-K}

Material,
    expanded polystyrene - molded beads - 240mm,  !- Name
    VeryRough,               !- Roughness
    0.24,                    !- Thickness {m}
    0.037,                   !- Conductivity {W/m-K}
    16,                      !- Density {kg/m3}
    1210;                    !- Specific Heat {J/kg-K}

Material,
    expanded polystyrene - molded beads - 280mm,  !- Name
    VeryRough,               !- Roughness
    0.28,                    !- Thickness {m}
    0.037,                   !- Conductivity {W/m-K}
    16,                      !- Density {kg/m3}
    1210;                    !- Specific Heat {J/kg-K}
    
Material,
    Limestone 240mm,		 !- Name
    MediumRough,             !- Roughness
    0.24,                  	 !- Thickness {m}
    1.1,                     !- Conductivity {W/m-K}
    1800,                    !- Density {kg/m3}
    790;                     !- Specific Heat {J/kg-K}


Material:RoofVegetation,     
    extensive planting, !- Name     
    0.5, !- Height of Plants {m}  
    5, !- Leaf Area Index {dimensionless}     
    0.2, !- Leaf Reflectivity {dimensionless}     
    0.95, !- Leaf Emissivity     
    180, !- Minimum Stomatal Resistance (s/m)     
    EcoRoofSoil, !- Soil Layer Name     
    MediumSmooth, !- Roughness     
    0.18, !- Thickness {m}     
    0.4, !- Conductivity (dry soil) {W/m-K}     
    641, !- Density (dry soil) {kg/m3}     
    1100, !- Specific Heat (dry soil) {J/kg-K}     
    0.95, !- Thermal Absorptance     
    0.8, !- Solar Absorptance     
    0.7, !- Visible Absorptance     
    0.4, !- Max volumetric moisture content of the soil layer (saturation)     
    0.01, !- Min (residual) volumetric moisture content of the soil layer     
    0.2; !- Initial volumetric moisture content of the soil layer     
 




!! !!!!! !!!!!!!!!! !!!!!!!!!!!!!
!! ANAR+ PREDEFINED CONSTRUCTIONS
!! !!!!! !!!!!!!!!! !!!!!!!!!!!!!    

Construction,
    Concrete Exterior Wall - wooden cladding,    	!- Name
    G05 25mm wood,									!- Outside Layer
    F04 Wall air space resistance,         			!- Layer 2
    M15 200mm heavyweight concrete;  				!- Layer 3  




Construction,
    Concrete Exterior Wall - lightly insulated,    	!- Name
    Cement Plaster: Sand aggregate - 10mm,			!- Outside Layer
    expanded polystyrene - extruded - 40mm,         !- Layer 2
    M15 200mm heavyweight concrete;  				!- Layer 3

Construction,
    Concrete Exterior Wall - well insulated,    	!- Name
    Cement Plaster: Sand aggregate - 10mm,			!- Outside Layer
    expanded polystyrene - extruded - 160mm,        !- Layer 2
    M15 200mm heavyweight concrete;  				!- Layer 3

Construction,
    Concrete Exterior Wall - strongly insulated,   	!- Name
    Cement Plaster: Sand aggregate - 10mm,			!- Outside Layer
    expanded polystyrene - extruded - 280mm,        !- Layer 2
    M15 200mm heavyweight concrete;  				!- Layer 3 




Construction,
    Limestone Exterior Wall - lightly insulated,    !- Name
    Cement Plaster: Sand aggregate - 10mm,			!- Outside Layer
    expanded polystyrene - extruded - 40mm,         !- Layer 2
    Limestone 240mm,  								!- Layer 3
    Cement Plaster: Sand aggregate - 10mm;			!- Layer 4

Construction,
    Limestone Exterior Wall - well insulated,    	!- Name
    Cement Plaster: Sand aggregate - 10mm,			!- Outside Layer
    expanded polystyrene - extruded - 160mm,        !- Layer 2
    Limestone 240mm,  								!- Layer 3
    Cement Plaster: Sand aggregate - 10mm;			!- Layer 4

!Construction,
!    Limestone Exterior Wall - strongly insulated,   !- Name
!    Cement Plaster: Sand aggregate - 10mm,			!- Outside Layer
!    expanded polystyrene - extruded - 280mm,        !- Layer 2
!    Limestone 240mm,  								!- Layer 3
!    Cement Plaster: Sand aggregate - 10mm;			!- Layer 4




Construction,
    Light Exterior Wall - lightly insulated,    	!- Name
    Cement Plaster: Sand aggregate - 10mm,			!- Outside Layer
    G01 16mm gypsum board,							!- Layer 2
    expanded polystyrene - extruded - 40mm,         !- Layer 3
    G01 16mm gypsum board,  						!- Layer 4
    G01 16mm gypsum board;  						!- Layer 5

Construction,
    Light Exterior Wall - well insulated,    		!- Name
    Cement Plaster: Sand aggregate - 10mm,			!- Outside Layer
    G01 16mm gypsum board,							!- Layer 2
    expanded polystyrene - extruded - 160mm,        !- Layer 3
    G01 16mm gypsum board,  						!- Layer 4
    G01 16mm gypsum board;  						!- Layer 5

Construction,
    Light Exterior Wall - strongly insulated,    	!- Name
    Cement Plaster: Sand aggregate - 10mm,			!- Outside Layer
    G01 16mm gypsum board,							!- Layer 2
    expanded polystyrene - extruded - 280mm,        !- Layer 3
    G01 16mm gypsum board,  						!- Layer 4
    G01 16mm gypsum board;  						!- Layer 5






Construction,
    Brick Partition Wall - plastered,   			!- Name
    Cement Plaster: Sand aggregate - 10mm,			!- Outside Layer
    M01 100mm brick,        						!- Layer 2
    Cement Plaster: Sand aggregate - 10mm;  		!- Layer 3


Construction,
    Light Partition Wall - insulated,   			!- Name
    G01 16mm gypsum board,							!- Outside Layer
    expanded polystyrene - extruded - 40mm,        	!- Layer 2
    G01 16mm gypsum board;  						!- Layer 3
    
    
    
Construction,
    Concrete Slab - wooden flooring,   				!- Name
    M15 200mm heavyweight concrete,					!- Outside Layer
    expanded polystyrene - extruded - 40mm,        	!- Layer 2
    G06 50mm wood;  								!- Layer 3
    
Construction,
    Concrete Slab - screed and linoluem flooring,   					!- Name
    M15 200mm heavyweight concrete,										!- Outside Layer
    expanded polystyrene - extruded - 40mm,        						!- Layer 2
    Concrete: Cement/lime - mortar - and stucco - 1920 kg/m3 - 51mm, 	!- Layer 3 
    Tile: asphalt - linoleum - vinyl - rubber;							!- Layer 4
       
Construction,
    Light Slab - wooden flooring,   				!- Name
    G01 16mm gypsum board,							!- Outside Layer
    expanded polystyrene - extruded - 160mm,        !- Layer 2
    G06 50mm wood;  								!- Layer 3



Construction,
    Medium Exterior Wall Insulated,    !- Name
    M01 100mm brick,         !- Outside Layer
    Insulation: Expanded polystyrene - extruded (smooth skin surface) (HCFC-142b exp.),  !- Layer 2
    F04 Wall air space resistance,  !- Layer 3
    G01a 19mm gypsum board;  !- Layer 4

Construction,
    Medium Roof/Ceiling Insulated,     !- Name
    Insulation: Expanded polystyrene - extruded (smooth skin surface) (HCFC-142b exp.), !- Outside Layer 
    M14a 100mm heavyweight concrete,   !- Layer 2
    F05 Ceiling air space resistance,  !- Layer 3
    F16 Acoustic tile;       !- Layer 4

Construction,
    Medium Partitions Insulated,       !- Name
    G01a 19mm gypsum board,  !- Outside Layer
    Insulation: Expanded polystyrene - extruded (smooth skin surface) (HCFC-142b exp.),  !- Layer 2
    G01a 19mm gypsum board;  !- Layer 3

Construction,
    Medium Floor Insulated,            !- Name
    F16 Acoustic tile,       !- Outside Layer
    F05 Ceiling air space resistance,  !- Layer 2
    M14a 100mm heavyweight concrete,  !- Layer 3
    Insulation: Expanded polystyrene - extruded (smooth skin surface) (HCFC-142b exp.); !- Layer 4

Construction,
    Heavy Exterior Wall Insulated,     !- Name
    M01 100mm brick,         !- Outside Layer
    Insulation: Expanded polystyrene - extruded (smooth skin surface) (HCFC-142b exp.), !- Layer 2
    M15 200mm heavyweight concrete,  !- Layer 3
    F04 Wall air space resistance,  !- Layer 4
    G01a 19mm gypsum board;  !- Layer 5

Construction,
    Heavy Roof/Ceiling Insulated,      !- Name
    Insulation: Expanded polystyrene - extruded (smooth skin surface) (HCFC-142b exp.), !- Outside Layer
    M15 200mm heavyweight concrete,  !- Layer 2
    F05 Ceiling air space resistance,  !- Layer 3
    F16 Acoustic tile;       !- Layer 4

Construction,
    Heavy Partitions Insulated,        !- Name
    G01a 19mm gypsum board,  !- Outside Layer
    Insulation: Expanded polystyrene - extruded (smooth skin surface) (HCFC-142b exp.), !- Layer 2
    M05 200mm concrete block,!- Layer 3
    G01a 19mm gypsum board;  !- Layer 4
    
Construction,
    Heavy Floor Insulated,             !- Name
    F16 Acoustic tile,       !- Outside Layer
    F05 Ceiling air space resistance,  !- Layer 2
    M15 200mm heavyweight concrete,  !- Layer 3
    Insulation: Expanded polystyrene - extruded (smooth skin surface) (HCFC-142b exp.); !- Layer 4

Construction,
    door construction,       !- Name
    G05 25mm wood;      !- Outside Layer



!! !!!!! !!!!!!!!!! !!!!!!!!!    
!! ZONE MIXINGS
!! !!!!! !!!!!!!!!! !!!!!!!!!    

! not working need to check

!! !!!!! !!!!!!!!!! !!!!!!!!!    
!! USER FORMATTED INPUT
!! !!!!! !!!!!!!!!! !!!!!!!!!    




!! !!!!!!!!!!!!!!!!!!!!!!!!!!!!!   
!! !!!!!!!!!!!!!!!!!!!!!!!!!!!!!   
!! !!!!!!!!!!!!!!!!!!!!!!!!!!!!!   
  

  
  Output:VariableDictionary,IDF, Name;
  

  Output:Variable,*,Zone Mean Air Temperature,hourly;
  Output:Variable,*,Zone Mean Radiant Temperature,hourly;
  Output:Variable,*,Zone Air Relative Humidity,hourly;
  
  Output:Variable,*,Site Outdoor Air Drybulb Temperature,hourly;
  Output:Variable,*,Site Outdoor Air Relative Humidity,hourly;



!! !!!!!!!!!!!!!!!!!!!!!!!!!!!!!   
!! !!!!!!!!!!!!!!!!!!!!!!!!!!!!!   
!! !!!!!!!!!!!!!!!!!!!!!!!!!!!!!   

  Output:Variable,*,Site Wind Speed,hourly;
  Output:Variable,*,Site Wind Direction,hourly;
          



          
!! !!!!!!!!!!!!!!!!!!!!!!!!!!!!!   
!! HVAC purchased air   
!! !!!!!!!!!!!!!!!!!!!!!!!!!!!!!    

##ifdef HVAC

  
ScheduleTypeLimits,
  HVACTemplate Any Number;                                 !- Name

Schedule:Compact,
  HVACTemplate-Always 1,                                   !- Name
  HVACTemplate Any Number,                                 !- Type
  Through: 12/31,                                          !- Field
  For: AllDays,                                            !- Field
  Until: 24:00,                                            !- Field
  1;                                                       !- Field

Schedule:Compact,
  HVACTemplate-Always 4,                                   !- Name
  HVACTemplate Any Number,                                 !- Type
  Through: 12/31,                                          !- Field
  For: AllDays,                                            !- Field
  Until: 24:00,                                            !- Field
  4;                                                       !- Field
  
  
  
  ! CAREFUL order is inverted in result file 
  Output:Variable,*,Zone Air System Sensible Cooling Rate,hourly;
  Output:Variable,*,Zone Air System Sensible Heating Rate,hourly;

  Output:Variable,*,Zone Mechanical Ventilation Air Changes per Hour,hourly; !- HVAC Average [ach]

##endif

!! test
!! Output:Variable,*,Opaque Surface Inside Face Conduction,hourly;


!! !!!!!!!!!!!!!!!!!!!!!!!!!!!!!   
!! airflow network model   
!! !!!!!!!!!!!!!!!!!!!!!!!!!!!!!   

##ifdef AIRFLOW


  AirflowNetwork:SimulationControl,
    NaturalVentilation,      		!- Name
    MultizoneWithoutDistribution,  	!- AirflowNetwork Control
    SurfaceAverageCalculation,		!- Wind Pressure Coefficient Type
    Every30Degrees,      			!- AirflowNetwork Wind Pressure Coefficient Array Name
    ExternalNode,            		!- Height Selection for Local Wind Speed Calculation
    LowRise,    		!- Building Type
    500,                     		!- Maximum Number of Iterations {dimensionless}
    ZeroNodePressures,       		!- Initialization Type
    1.0E-04,                 		!- Relative Airflow Convergence Tolerance {dimensionless}
    1.0E-05,                 		!- Absolute Airflow Convergence Tolerance {kg/s}
    -0.5,                    		!- Convergence Acceleration Limit {dimensionless}
    0.0, !- Azimuth Angle of Long Axis of Building {deg}
    1.0;	!- Ratio of Building Width Along Short Axis to Width Along Long Axis

  Schedule:Compact,
    WindowVentSched,         !- Name
    Any Number,              !- Schedule Type Limits Name
    Through: 12/31,          
    For: Weekdays, 
    Until: 24:00, 20.0,     
    For: Holiday,
    Until: 24:00, 20.0,      
    For: Weekends AllOtherDays, 
    Until: 24:00, 20.0;    


! Schedule NightVentilation
Schedule:Compact,
    NightVentilation,     !- Name
    Fraction,                !- Schedule Type Limits Name
    Through: 12/31,          !- Field 1
    For: Weekdays,  	     !- Field 2
    Until: 08:00, 1.0,       !- Field 4
    Until: 18:00, 0.0,       !- Field 6
    Until: 24:00, 1.0,       !- Field 8
    For: Weekends AllOtherDays,  !- Field 9
    Until: 10:00, 1.0,       !- Field 11
    Until: 18:00, 0.0,       !- Field 13
    Until: 24:00, 1.0;       !- Field 15


  AirflowNetwork:MultiZone:WindPressureCoefficientArray,
    Every30Degrees,        !- Name
    0,                       !- Wind Direction 1 {deg}
    30,                      !- Wind Direction 2 {deg}
    60,                      !- Wind Direction 3 {deg}
    90,                      !- Wind Direction 4 {deg}
    120,                     !- Wind Direction 5 {deg}
    150,                     !- Wind Direction 6 {deg}
    180,                     !- Wind Direction 7 {deg}
    210,                     !- Wind Direction 8 {deg}
    240,                     !- Wind Direction 9 {deg}
    270,                     !- Wind Direction 10 {deg}
    300,                     !- Wind Direction 11 {deg}
    330;                     !- Wind Direction 12 {deg}

  AirflowNetwork:MultiZone:ReferenceCrackConditions,
    ReferenceCrackConditions,!- Name
    20.0,   !- Reference Temperature {C}
    101325.0,  !- Reference Barometric Pressure {Pa}
    0.0;  !- Reference Humidity Ratio {kg/kg}


  Output:Variable,*,AFN Zone Infiltration Air Change Rate,hourly; !- HVAC Average [ach]

##endif

!! !!!!!!!!!!!!!!!!!!!!!!!!!!!!!   
!! !!!!!!!!!!!!!!!!!!!!!!!!!!!!!   
!! !!!!!!!!!!!!!!!!!!!!!!!!!!!!!   

OutputControl:SurfaceColorScheme,
    Original,                !- Name
    Text,                    !- Drawing Element 1 Type
    3,                       !- Color for Drawing Element 1
    Walls,                   !- Drawing Element 2 Type
    3,                       !- Color for Drawing Element 2					    
    Windows,                 !- Drawing Element 3 Type
    4,                       !- Color for Drawing Element 3
    GlassDoors,              !- Drawing Element 4 Type
    4,                       !- Color for Drawing Element 4
    Doors,                   !- Drawing Element 5 Type
    4,                       !- Color for Drawing Element 5
    Roofs,                   !- Drawing Element 6 Type
    2,                       !- Color for Drawing Element 6
    Floors,                  !- Drawing Element 7 Type
    8,                       !- Color for Drawing Element 7
    DetachedBuildingShades,  !- Drawing Element 8 Type
    9,                       !- Color for Drawing Element 8
    DetachedFixedShades,     !- Drawing Element 9 Type
    5,                       !- Color for Drawing Element 9
    AttachedBuildingShades,  !- Drawing Element 10 Type
    6,                       !- Color for Drawing Element 10
    DaylightReferencePoint1, !- Drawing Element 11 Type
    10,                      !- Color for Drawing Element 11
    DaylightReferencePoint2, !- Drawing Element 12 Type
    5;                       !- Color for Drawing Element 12
   
  Output:Surfaces:Drawing, DXF, Triangulate3DFace, Original;

!! !!!!!!!!!!!!!!!!!!!!!!!!!!!!!   
!! !!!!!!!!!!!!!!!!!!!!!!!!!!!!!   
!! !!!!!!!!!!!!!!!!!!!!!!!!!!!!!   


!! !!!!!!!!!!!!!!!!!!!!!!!!!!!!!   
!! !!!!!!!!!!!!!!!!!!!!!!!!!!!!!   
!! !!!!!!!!!!!!!!!!!!!!!!!!!!!!!   
 
 
##ifdef TABLES 
  
	OutputControl:Table:Style,
		Comma, ! Column Separator
		JtoKWH; ! Unit Conversion
	
	
	Output:Table:SummaryReports,
		ClimaticDataSummary, !- Report 1 Name
		EnvelopeSummary, !- Report 2 Name
		LightingSummary, !- Report 3 Name
		OutdoorAirSummary, !- Report 4 Name
		SensibleHeatGainSummary; !- Report 5 Name
	
	Output:Table:Monthly,
	    Zone Heating Summary,    !- Name
	    ,                        !- Digits After Decimal
	    Zone Air System Sensible Heating Energy, 
	    SumOrAverage,          
	    Zone Air System Sensible Heating Rate, 
	    Maximum,               
	    Site Outdoor Air Drybulb Temperature,      
	    ValueWhenMaximumOrMinimum; 
	
	Output:Table:Monthly,
	    Zone Cooling Summary,    !- Name
	    ,                        !- Digits After Decimal
	    Zone Air System Sensible Cooling Energy, 
	    SumOrAverage,         
	    Zone Air System Sensible Cooling Rate, 
	    Maximum,              
	    Site Outdoor Air Drybulb Temperature,       
	    ValueWhenMaximumOrMinimum;
	
	Output:Table:Monthly,
	    Zone Electric Summary,   !- Name
	    ,                        !- Digits After Decimal
	    Zone Lights Electric Energy, 
	    SumOrAverage,        
	!    Zone Lights Electric Energy, 
	!    Maximum,             
	    Zone Electric Equipment Electric Energy, 
	    SumOrAverage,        
	!    Zone Electric Equipment Electric Energy, 
	!    Maximum,          
	    Zone Ventilation Fan Electric Energy, 
	    SumOrAverage;        
	!    Zone Ventilation Fan Electric Energy, 
	!    Maximum;          
	    
	Output:Table:Monthly,
	    Space Gains,             !- Name
	    ,                        !- Digits After Decimal
	    Zone People Total Heating Energy, 
	    SumOrAverage,    
	    Zone Lights Total Heating Energy, 
	    SumOrAverage,    
	    Zone Electric Equipment Total Heating Energy, 
	    SumOrAverage,    
	    Zone Gas Equipment Total Heating Energy, 
	    SumOrAverage,   
	    Zone Hot Water Equipment Total Heating Energy, 
	    SumOrAverage,   
	    Zone Steam Equipment Total Heating Energy, 
	    SumOrAverage,   
	    Zone Other Equipment Total Heating Energy, 
	    SumOrAverage,   
	    Zone Total Internal Total Heating Energy,
	    SumOrAverage;     
	  
	Output:Table:Monthly,
	    Window Energy Zone Summary,  !- Name
	    ,                        !- Digits After Decimal
	    Zone Windows Total Heat Gain Energy, 
	    SumOrAverage,          
	    Zone Windows Total Heat Loss Energy, 
	    SumOrAverage,          
	    Zone Windows Total Transmitted Solar Radiation Energy,
	    SumOrAverage,          
	    Zone Exterior Windows Total Transmitted Beam Solar Radiation Energy, 
	    SumOrAverage,          
	    Zone Exterior Windows Total Transmitted Diffuse Solar Radiation Energy, 
	    SumOrAverage,          
	    Zone Interior Windows Total Transmitted Beam Solar Radiation Energy, 
	    SumOrAverage,          
	    Zone Interior Windows Total Transmitted Diffuse Solar Radiation Energy, 
	    SumOrAverage;          
	    
	Output:Table:Monthly,
	    Window Energy Summary,  !- Name
	    ,                        !- Digits After Decimal
	    Surface Window Transmitted Solar Radiation Energy,  
	    SumOrAverage,          
	    Surface Window Transmitted Beam Solar Radiation Energy, 
	    SumOrAverage,          
	    Surface Window Transmitted Diffuse Solar Radiation Energy, 
	    SumOrAverage,          
	    Window Heat Gain Energy, 
	    SumOrAverage,          
	    Window Heat Loss Energy, 
	    SumOrAverage;          
	        
	    
	    
	Output:Table:Monthly,
	    Wall Energy Zone Summary,  !- Name
	    ,                        !- Digits After Decimal
	    Surface Int Convection Heat Gain to Air, 
	    SumOrAverage,       
	    Surface Ext Convection Heat Rate, 
	    SumOrAverage,       
	    Surface Ext Thermal Radiation Heat Rate, 
	    SumOrAverage,       
	    Surface Ext Convection Heat Rate per Area, 
	    SumOrAverage,       
	    Surface Ext Thermal Radiation Heat Rate per Area, 
	    SumOrAverage,       
	    Surface Ext Convection Heat Loss to Outdoors, 
	    SumOrAverage,       
	    Surface Ext Thermal Radiation Heat Loss to Outdoors, 
	    SumOrAverage;
	            
	Output:Table:Monthly,
	    Airflow Energy Zone Summary,  !- Name
	    ,                        !- Digits After Decimal